<configuration>
    <input>
        <net-file value="../network/intersection.net.xml"/>
        <route-files value="../routes/random.rou.xml"/>
    </input>
    <time>
        <begin value="0"/>
        <end value="1000"/>
    </time>
</configuration>
